Version 4
SHEET 1 4196 804
WIRE 1264 -784 1264 -800
WIRE 1312 -784 1264 -784
WIRE 1088 -768 1088 -800
WIRE 1312 -768 1312 -784
WIRE 1472 -768 1472 -800
WIRE 1632 -768 1632 -800
WIRE 1776 -768 1776 -800
WIRE 1952 -768 1952 -800
WIRE 2144 -768 2144 -800
WIRE 3728 -432 3600 -432
WIRE 1248 -384 1104 -384
WIRE 1456 -384 1312 -384
WIRE 3600 -384 3600 -432
WIRE 2528 -336 2384 -336
WIRE 2736 -336 2592 -336
WIRE 1104 -256 1104 -384
WIRE 1104 -256 816 -256
WIRE 1136 -256 1104 -256
WIRE 480 -240 448 -240
WIRE 544 -240 480 -240
WIRE 3600 -240 3600 -304
WIRE 1456 -208 1456 -384
WIRE 1456 -208 1424 -208
WIRE 1616 -208 1456 -208
WIRE 1824 -208 1616 -208
WIRE 2384 -208 2384 -336
WIRE 2384 -208 2096 -208
WIRE 2416 -208 2384 -208
WIRE 544 -192 544 -240
WIRE 816 -192 816 -256
WIRE 1824 -176 1824 -208
WIRE 2096 -176 2096 -208
WIRE 1136 -160 1072 -160
WIRE 2736 -160 2736 -336
WIRE 2736 -160 2704 -160
WIRE 2896 -160 2736 -160
WIRE 3008 -160 2896 -160
WIRE 3728 -160 3728 -432
WIRE 3488 -128 3488 -160
WIRE 2416 -112 2352 -112
WIRE 3328 -112 3296 -112
WIRE 3392 -112 3328 -112
WIRE 3456 -112 3392 -112
WIRE 3552 -112 3520 -112
WIRE 3648 -112 3552 -112
WIRE 3872 -112 3808 -112
WIRE 3488 -80 3488 -96
WIRE 544 -64 544 -112
WIRE 640 -64 544 -64
WIRE 816 -64 816 -112
WIRE 816 -64 704 -64
WIRE 1824 -64 1824 -96
WIRE 1920 -64 1824 -64
WIRE 2096 -64 2096 -96
WIRE 2096 -64 1984 -64
WIRE 3008 -64 2960 -64
WIRE 3648 -64 3536 -64
WIRE 544 -32 544 -64
WIRE 816 -32 816 -64
WIRE 1824 -32 1824 -64
WIRE 2096 -32 2096 -64
WIRE 3136 16 3136 -32
WIRE 3536 48 3536 -64
WIRE 3728 80 3728 -16
WIRE 2576 128 2576 112
WIRE 544 144 544 48
WIRE 1824 144 1824 48
WIRE 1824 144 544 144
WIRE 2480 144 1824 144
WIRE 2544 144 2480 144
WIRE 3328 144 3328 -112
WIRE 3328 144 2608 144
WIRE 3728 160 3728 144
WIRE 2576 192 2576 160
WIRE 3536 208 3536 128
WIRE 3728 208 3728 160
FLAG 1088 -768 0
FLAG 480 -240 Vin
FLAG 1952 -768 0
FLAG 1952 -880 phi1
FLAG 1632 -768 0
FLAG 1632 -880 Vdd
FLAG 1776 -768 0
FLAG 1776 -880 Vcm
FLAG 2960 -64 Vcm
FLAG 3136 -192 Vdd
FLAG 3136 16 phi1
FLAG 3392 -112 cmp
FLAG 1472 -768 0
FLAG 1472 -880 Vref
FLAG 1072 -160 Vcm
FLAG 1088 -880 Vin
FLAG 816 48 Vcm
FLAG 1312 -768 0
FLAG 1264 -848 Vdd
FLAG 1312 -864 trip
FLAG 768 -128 trip
FLAG 768 32 trip
FLAG 496 -128 trip
FLAG 496 32 trip
FLAG 768 -176 phi1
FLAG 496 -16 phi1
FLAG 768 -16 phi2
FLAG 496 -176 phi2
FLAG 2144 -768 0
FLAG 2144 -880 phi2
FLAG 3552 -112 vd
FLAG 3488 -80 0
FLAG 3488 -160 Vdd
FLAG 2576 112 Vref
FLAG 2576 192 0
FLAG 2352 -112 Vcm
FLAG 2480 144 Vfb
FLAG 2096 48 Vcm
FLAG 1776 -112 trip
FLAG 1776 32 trip
FLAG 2048 -112 trip
FLAG 2048 32 trip
FLAG 1776 -160 phi1
FLAG 2048 -16 phi1
FLAG 1776 -16 phi2
FLAG 2048 -160 phi2
FLAG 1616 -208 vx1
FLAG 2896 -160 vx2
FLAG 3872 -112 Dout
IOPIN 3872 -112 Out
FLAG 3536 208 0
FLAG 3728 208 0
FLAG 3600 -240 0
SYMBOL voltage 1088 -896 R0
WINDOW 123 0 0 Left 2
WINDOW 39 0 0 Left 2
WINDOW 0 -96 20 Left 2
WINDOW 3 -209 104 Left 2
SYMATTR InstName Vin
SYMATTR Value SINE({Voff} {Vamp} {freq})
SYMBOL voltage 1952 -896 R0
WINDOW 0 36 42 Left 2
WINDOW 3 -52 207 VLeft 2
WINDOW 123 0 0 Left 2
WINDOW 39 0 0 Left 2
SYMATTR InstName Vphi1
SYMATTR Value PULSE(0V {VDD} 0ns 0.1ns 0.1ns 22us 46us)
SYMBOL voltage 1632 -896 R0
WINDOW 123 0 0 Left 2
WINDOW 39 0 0 Left 2
SYMATTR InstName VDD
SYMATTR Value {VDD}
SYMBOL cap 1312 -400 R90
WINDOW 0 0 32 VBottom 2
WINDOW 3 32 32 VTop 2
SYMATTR InstName Ci1
SYMATTR Value {Ci1}
SYMATTR SpiceLine ic=0V
SYMBOL voltage 1776 -896 R0
WINDOW 123 0 0 Left 2
WINDOW 39 0 0 Left 2
SYMATTR InstName VCM
SYMATTR Value {VCM}
SYMBOL Ideal_clocked_comparator 3056 -112 R0
SYMATTR InstName X4
SYMBOL voltage 1472 -896 R0
WINDOW 123 0 0 Left 2
WINDOW 39 0 0 Left 2
SYMATTR InstName Vref
SYMATTR Value {Vref}
SYMBOL Ideal_op_amp 1184 -208 R0
SYMATTR InstName X2
SYMBOL sw 816 -96 M180
WINDOW 3 24 -12 Left 2
WINDOW 38 39 37 Left 2
WINDOW 0 35 82 Left 2
SYMATTR Value ""
SYMATTR SpiceModel switch
SYMATTR InstName S1
SYMBOL cap 704 -80 R90
WINDOW 0 0 32 VBottom 2
WINDOW 3 32 32 VTop 2
SYMATTR InstName Cs1
SYMATTR Value {Cs1}
SYMBOL sw 816 64 M180
WINDOW 3 24 -12 Left 2
WINDOW 38 39 37 Left 2
WINDOW 0 35 82 Left 2
SYMATTR Value ""
SYMATTR SpiceModel switch
SYMATTR InstName S2
SYMBOL sw 544 -96 M180
WINDOW 3 24 -12 Left 2
WINDOW 38 39 37 Left 2
WINDOW 0 35 82 Left 2
SYMATTR Value ""
SYMATTR SpiceModel switch
SYMATTR InstName S3
SYMBOL sw 544 64 M180
WINDOW 3 24 -12 Left 2
WINDOW 38 39 37 Left 2
WINDOW 0 35 82 Left 2
SYMATTR Value ""
SYMATTR SpiceModel switch
SYMATTR InstName S4
SYMBOL e 1312 -880 R0
WINDOW 0 39 37 Left 2
WINDOW 3 38 79 Left 2
SYMATTR InstName Etrip
SYMATTR Value 0.5
SYMBOL voltage 2144 -896 R0
WINDOW 0 36 42 Left 2
WINDOW 3 -52 207 VLeft 2
WINDOW 123 0 0 Left 2
WINDOW 39 0 0 Left 2
SYMATTR InstName Vphi2
SYMATTR Value PULSE(0V {VDD} 23us 0.1ns 0.1ns 22us 46us)
SYMBOL INV 3456 -80 R0
SYMATTR InstName X3
SYMBOL cap 2592 -352 R90
WINDOW 0 0 32 VBottom 2
WINDOW 3 32 32 VTop 2
SYMATTR InstName Ci2
SYMATTR Value {Ci2}
SYMATTR SpiceLine ic=0V
SYMBOL INV 2608 176 M0
SYMATTR InstName X5
SYMBOL Ideal_op_amp 2464 -160 R0
SYMATTR InstName X6
SYMBOL sw 1824 -80 M180
WINDOW 3 24 -12 Left 2
WINDOW 38 39 37 Left 2
WINDOW 0 35 82 Left 2
SYMATTR Value ""
SYMATTR SpiceModel switch
SYMATTR InstName S5
SYMBOL cap 1984 -80 R90
WINDOW 0 0 32 VBottom 2
WINDOW 3 32 32 VTop 2
SYMATTR InstName Cs2
SYMATTR Value {Cs2}
SYMBOL sw 1824 64 M180
WINDOW 3 24 -12 Left 2
WINDOW 38 39 37 Left 2
WINDOW 0 35 82 Left 2
SYMATTR Value ""
SYMATTR SpiceModel switch
SYMATTR InstName S6
SYMBOL sw 2096 -80 M180
WINDOW 3 24 -12 Left 2
WINDOW 38 39 37 Left 2
WINDOW 0 35 82 Left 2
SYMATTR Value ""
SYMATTR SpiceModel switch
SYMATTR InstName S7
SYMBOL sw 2096 64 M180
WINDOW 3 24 -12 Left 2
WINDOW 38 39 37 Left 2
WINDOW 0 35 82 Left 2
SYMATTR Value ""
SYMATTR SpiceModel switch
SYMATTR InstName S8
SYMBOL Digital\\dflop 3728 -160 R0
SYMATTR InstName A1
SYMBOL voltage 3536 32 R0
WINDOW 3 -301 159 Left 2
WINDOW 123 0 0 Left 0
WINDOW 39 0 0 Left 0
SYMATTR Value PULSE(0 1 1n 1n 1n 1n 4m 10m)
SYMATTR InstName V1
SYMBOL voltage 3728 64 R0
WINDOW 123 0 0 Left 0
WINDOW 39 0 0 Left 0
SYMATTR InstName V2
SYMATTR Value 1
SYMBOL voltage 3600 -400 R0
WINDOW 123 0 0 Left 0
WINDOW 39 0 0 Left 0
SYMATTR InstName V3
SYMATTR Value 1
TEXT 2320 -856 Left 2 !.options plotwinsize=0
TEXT 2320 -824 Left 2 !.model switch sw ron=.1
TEXT 2312 -1128 Left 2 !.param VDD=3.0\n.param Vref=3.0\n.param Vcm=VDD/2.0\n.param Voff=Vcm\n.param Vamp=1.2\n.param freq=2k\n.param Cs1=1p Ci1=9p Cs2=1p Ci2=9p
TEXT 2320 -728 Left 2 !;options plotwinsize = 0\n;options numdgt = 7
TEXT 430 232 Left 2 !.tran 0 10m 0 1m
